*SPEF "ieee 1481-1999"
*DESIGN "dll"
*DATE "14:54:13 Wednesday May 07, 2025"
*VENDOR "The OpenROAD Project"
*PROGRAM "OpenROAD"
*VERSION "87af90f72f3f9be1fdfa1d886f0dd8d8b8f34694"
*DESIGN_FLOW "NAME_SCOPE LOCAL" "PIN_CAP NONE"
*DIVIDER /
*DELIMITER :
*BUS_DELIMITER []
*T_UNIT 1 NS
*C_UNIT 1 PF
*R_UNIT 1 OHM
*L_UNIT 1 HENRY

*NAME_MAP
*3 clockp[0]
*4 clockp[1]
*5 dco
*6 div[0]
*7 div[1]
*8 div[2]
*9 div[3]
*10 div[4]
*11 div[5]
*12 div[6]
*13 div[7]
*14 enable
*15 ext_trim[0]
*16 ext_trim[10]
*17 ext_trim[11]
*18 ext_trim[12]
*19 ext_trim[13]
*20 ext_trim[14]
*21 ext_trim[15]
*22 ext_trim[16]
*23 ext_trim[17]
*24 ext_trim[18]
*25 ext_trim[19]
*26 ext_trim[1]
*27 ext_trim[20]
*28 ext_trim[21]
*29 ext_trim[22]
*30 ext_trim[23]
*31 ext_trim[24]
*32 ext_trim[25]
*33 ext_trim[2]
*34 ext_trim[3]
*35 ext_trim[4]
*36 ext_trim[5]
*37 ext_trim[6]
*38 ext_trim[7]
*39 ext_trim[8]
*40 ext_trim[9]
*41 osc
*42 resetb
*43 _000_
*44 _001_
*45 _002_
*46 _003_
*47 _004_
*48 _005_
*49 _006_
*50 _007_
*51 _008_
*52 _009_
*53 _010_
*54 _011_
*55 _012_
*56 _013_
*57 _014_
*58 _015_
*59 _016_
*60 _017_
*61 _018_
*62 _019_
*63 _020_
*64 _021_
*65 _022_
*66 _023_
*67 _024_
*68 _025_
*69 _026_
*70 _027_
*71 _028_
*72 _029_
*73 _030_
*74 _031_
*75 _032_
*76 _033_
*77 _034_
*78 _035_
*79 _036_
*80 _037_
*81 _038_
*82 _039_
*83 _040_
*84 _041_
*85 _042_
*86 _043_
*87 _044_
*88 _045_
*89 _046_
*90 _047_
*91 _048_
*92 _049_
*93 _050_
*94 _051_
*95 _052_
*96 _053_
*97 _054_
*98 _055_
*99 _056_
*100 _057_
*101 _058_
*102 _059_
*103 _060_
*104 _061_
*105 _062_
*106 _063_
*107 _064_
*108 _065_
*109 _066_
*110 _067_
*111 _068_
*112 _069_
*113 _070_
*114 _071_
*115 _072_
*116 _073_
*117 _074_
*118 _075_
*119 _076_
*120 _077_
*121 _078_
*122 _079_
*123 _080_
*124 _081_
*125 _082_
*126 _083_
*127 _084_
*128 _085_
*129 _086_
*130 _087_
*131 _088_
*132 _089_
*133 _090_
*134 _091_
*135 _092_
*136 _093_
*137 _094_
*138 _095_
*139 _096_
*140 _097_
*141 _098_
*142 _099_
*143 _100_
*144 _101_
*145 _102_
*146 _103_
*147 _104_
*148 _105_
*149 _106_
*150 _107_
*151 _108_
*152 _109_
*153 _110_
*154 _111_
*155 _112_
*156 _113_
*157 _114_
*158 _115_
*159 _116_
*160 _117_
*161 _118_
*162 _119_
*163 _120_
*164 _121_
*165 _122_
*166 _123_
*167 _124_
*168 _125_
*169 _126_
*170 _127_
*171 _128_
*172 _129_
*173 _130_
*174 _131_
*175 _132_
*176 _133_
*177 _134_
*178 _135_
*179 _136_
*180 _137_
*181 _138_
*182 _139_
*183 _140_
*184 _141_
*185 _142_
*186 _143_
*187 _144_
*188 _145_
*189 _146_
*190 _147_
*191 _148_
*192 _149_
*193 _150_
*194 _151_
*195 _152_
*196 _153_
*197 _154_
*198 _155_
*199 _156_
*200 _157_
*201 _158_
*202 _159_
*203 _160_
*204 _161_
*205 _162_
*206 _163_
*207 _164_
*208 _165_
*209 _166_
*210 _167_
*211 _168_
*212 _169_
*213 _170_
*214 _171_
*215 _172_
*216 _173_
*217 _174_
*218 _175_
*219 _176_
*220 _177_
*221 _178_
*222 _179_
*223 _180_
*224 _181_
*225 _182_
*226 _183_
*227 _184_
*228 _185_
*229 _186_
*230 _187_
*231 _188_
*232 _189_
*233 _190_
*234 _191_
*235 _192_
*236 _193_
*237 _194_
*238 _195_
*239 _196_
*240 _197_
*241 _198_
*242 _199_
*243 _200_
*244 _201_
*245 _202_
*246 _203_
*247 _204_
*248 _205_
*249 _206_
*250 _207_
*251 _208_
*252 _209_
*253 _210_
*254 _211_
*255 _212_
*256 _213_
*257 _214_
*258 _215_
*259 _216_
*260 _217_
*261 _218_
*262 _219_
*263 _220_
*264 _221_
*265 _222_
*266 _223_
*267 _224_
*268 _225_
*269 _226_
*270 _227_
*271 _228_
*272 _229_
*273 _230_
*274 _231_
*275 _232_
*276 _233_
*277 _234_
*278 _235_
*279 _236_
*280 _237_
*281 _238_
*282 _239_
*283 _240_
*284 _241_
*285 _242_
*286 _243_
*287 _244_
*288 _245_
*289 _246_
*290 _247_
*291 _248_
*292 _249_
*293 _250_
*294 _251_
*295 _252_
*296 _253_
*297 _254_
*298 _255_
*299 _256_
*300 _257_
*301 _258_
*302 _259_
*303 _260_
*304 _261_
*305 _262_
*306 _263_
*307 _264_
*308 _265_
*309 _266_
*310 _267_
*311 _268_
*312 _269_
*313 _270_
*314 _271_
*315 _272_
*316 _273_
*317 _274_
*318 _275_
*319 _276_
*320 _277_
*321 _278_
*322 _279_
*323 _280_
*324 _281_
*325 _282_
*326 _283_
*327 _284_
*328 _285_
*329 _286_
*330 _287_
*331 _288_
*332 _289_
*333 _290_
*334 _291_
*335 _292_
*336 _293_
*337 _294_
*338 _295_
*339 _296_
*340 _297_
*341 _298_
*342 _299_
*343 _300_
*344 _301_
*345 _302_
*346 _303_
*347 _304_
*348 _305_
*349 _306_
*350 _307_
*351 _308_
*352 _309_
*353 _310_
*354 _311_
*355 _312_
*356 _313_
*357 _314_
*358 _315_
*359 _316_
*360 _317_
*361 _318_
*362 _319_
*363 _320_
*364 _321_
*365 _322_
*366 _323_
*367 _324_
*368 _325_
*369 _326_
*370 _327_
*371 _328_
*372 _329_
*373 _330_
*374 _331_
*375 _332_
*376 _333_
*377 _334_
*378 _335_
*379 _336_
*380 _337_
*381 _338_
*382 _339_
*383 _340_
*384 _341_
*385 _342_
*386 _343_
*387 _344_
*388 _345_
*389 _346_
*390 _347_
*391 _348_
*392 _349_
*393 _350_
*394 _351_
*395 _352_
*396 _353_
*397 _354_
*398 _355_
*399 _356_
*400 _357_
*401 _358_
*402 _359_
*403 _360_
*404 _361_
*405 _362_
*406 _363_
*407 _364_
*408 _365_
*409 _366_
*410 _367_
*411 _368_
*412 _369_
*413 _370_
*414 _371_
*415 _372_
*416 _373_
*417 _374_
*418 _375_
*419 _376_
*420 _377_
*421 _378_
*422 _379_
*423 _380_
*424 _381_
*425 _382_
*426 _383_
*427 _384_
*428 _385_
*429 _386_
*430 _387_
*431 _388_
*432 _389_
*433 _390_
*434 _391_
*435 _392_
*436 _393_
*437 _394_
*438 _395_
*439 _396_
*440 _397_
*441 _398_
*442 _399_
*443 _400_
*444 _401_
*445 _402_
*446 _403_
*447 _404_
*448 _405_
*449 _406_
*450 _407_
*451 _408_
*452 _409_
*453 _410_
*454 clockp_buffer_in\[0\]
*455 clockp_buffer_in\[1\]
*456 dll_control\.accum\[0\]
*457 dll_control\.accum\[1\]
*458 dll_control\.accum\[2\]
*459 dll_control\.accum\[3\]
*460 dll_control\.accum\[4\]
*461 dll_control\.accum\[5\]
*462 dll_control\.accum\[6\]
*463 dll_control\.accum\[7\]
*464 dll_control\.accum\[8\]
*465 dll_control\.count0\[0\]
*466 dll_control\.count0\[1\]
*467 dll_control\.count0\[2\]
*468 dll_control\.count0\[3\]
*469 dll_control\.count0\[4\]
*470 dll_control\.count0\[5\]
*471 dll_control\.count1\[0\]
*472 dll_control\.count1\[1\]
*473 dll_control\.count1\[2\]
*474 dll_control\.count1\[3\]
*475 dll_control\.count1\[4\]
*476 dll_control\.count1\[5\]
*477 dll_control\.count2\[0\]
*478 dll_control\.count2\[1\]
*479 dll_control\.count2\[2\]
*480 dll_control\.count2\[3\]
*481 dll_control\.count2\[4\]
*482 dll_control\.count2\[5\]
*483 dll_control\.count3\[0\]
*484 dll_control\.count3\[1\]
*485 dll_control\.count3\[2\]
*486 dll_control\.count3\[3\]
*487 dll_control\.count3\[4\]
*488 dll_control\.count3\[5\]
*489 dll_control\.count4\[0\]
*490 dll_control\.count4\[1\]
*491 dll_control\.count4\[2\]
*492 dll_control\.count4\[3\]
*493 dll_control\.count4\[4\]
*494 dll_control\.count4\[5\]
*495 dll_control\.count5\[0\]
*496 dll_control\.count5\[1\]
*497 dll_control\.count5\[2\]
*498 dll_control\.count5\[3\]
*499 dll_control\.count5\[4\]
*500 dll_control\.count5\[5\]
*501 dll_control\.count6\[0\]
*502 dll_control\.count6\[1\]
*503 dll_control\.count6\[2\]
*504 dll_control\.count6\[3\]
*505 dll_control\.count6\[4\]
*506 dll_control\.count6\[5\]
*507 dll_control\.count7\[0\]
*508 dll_control\.count7\[1\]
*509 dll_control\.count7\[2\]
*510 dll_control\.count7\[3\]
*511 dll_control\.count7\[4\]
*512 dll_control\.count7\[5\]
*513 dll_control\.count8\[0\]
*514 dll_control\.count8\[1\]
*515 dll_control\.count8\[2\]
*516 dll_control\.count8\[3\]
*517 dll_control\.count8\[4\]
*518 dll_control\.count8\[5\]
*519 dll_control\.oscbuf\[0\]
*520 dll_control\.oscbuf\[1\]
*521 dll_control\.oscbuf\[2\]
*522 dll_control\.tint\[0\]
*523 dll_control\.tint\[1\]
*524 dll_control\.tint\[2\]
*525 dll_control\.tint\[3\]
*526 dll_control\.tint\[4\]
*527 dll_control\.tval\[0\]
*528 dll_control\.tval\[1\]
*529 dll_control\.tval\[2\]
*530 ireset
*531 itrim\[0\]
*532 itrim\[10\]
*533 itrim\[11\]
*534 itrim\[12\]
*535 itrim\[13\]
*536 itrim\[14\]
*537 itrim\[15\]
*538 itrim\[16\]
*539 itrim\[17\]
*540 itrim\[18\]
*541 itrim\[19\]
*542 itrim\[1\]
*543 itrim\[20\]
*544 itrim\[21\]
*545 itrim\[22\]
*546 itrim\[23\]
*547 itrim\[24\]
*548 itrim\[25\]
*549 itrim\[2\]
*550 itrim\[3\]
*551 itrim\[4\]
*552 itrim\[5\]
*553 itrim\[6\]
*554 itrim\[7\]
*555 itrim\[8\]
*556 itrim\[9\]
*557 net104
*558 net105
*559 net106
*560 net107
*561 net108
*562 net109
*563 net110
*564 net111
*565 net112
*566 net113
*567 net114
*568 net115
*569 net116
*570 net117
*571 net118
*572 net119
*573 net120
*574 net121
*575 net122
*576 net123
*577 net124
*578 net125
*579 net126
*580 net127
*581 net128
*582 net129
*583 net130
*584 net131
*585 net132
*586 net133
*587 net134
*588 net135
*589 net136
*590 net137
*591 net138
*592 net139
*593 ringosc\.c\[0\]
*594 ringosc\.c\[1\]
*595 ringosc\.dstage\[0\]\.id\.d0
*596 ringosc\.dstage\[0\]\.id\.d1
*597 ringosc\.dstage\[0\]\.id\.d2
*598 ringosc\.dstage\[0\]\.id\.in
*599 ringosc\.dstage\[0\]\.id\.out
*600 ringosc\.dstage\[0\]\.id\.ts
*601 ringosc\.dstage\[10\]\.id\.d0
*602 ringosc\.dstage\[10\]\.id\.d1
*603 ringosc\.dstage\[10\]\.id\.d2
*604 ringosc\.dstage\[10\]\.id\.in
*605 ringosc\.dstage\[10\]\.id\.out
*606 ringosc\.dstage\[10\]\.id\.ts
*607 ringosc\.dstage\[11\]\.id\.d0
*608 ringosc\.dstage\[11\]\.id\.d1
*609 ringosc\.dstage\[11\]\.id\.d2
*610 ringosc\.dstage\[11\]\.id\.out
*611 ringosc\.dstage\[11\]\.id\.ts
*612 ringosc\.dstage\[1\]\.id\.d0
*613 ringosc\.dstage\[1\]\.id\.d1
*614 ringosc\.dstage\[1\]\.id\.d2
*615 ringosc\.dstage\[1\]\.id\.out
*616 ringosc\.dstage\[1\]\.id\.ts
*617 ringosc\.dstage\[2\]\.id\.d0
*618 ringosc\.dstage\[2\]\.id\.d1
*619 ringosc\.dstage\[2\]\.id\.d2
*620 ringosc\.dstage\[2\]\.id\.out
*621 ringosc\.dstage\[2\]\.id\.ts
*622 ringosc\.dstage\[3\]\.id\.d0
*623 ringosc\.dstage\[3\]\.id\.d1
*624 ringosc\.dstage\[3\]\.id\.d2
*625 ringosc\.dstage\[3\]\.id\.out
*626 ringosc\.dstage\[3\]\.id\.ts
*627 ringosc\.dstage\[4\]\.id\.d0
*628 ringosc\.dstage\[4\]\.id\.d1
*629 ringosc\.dstage\[4\]\.id\.d2
*630 ringosc\.dstage\[4\]\.id\.out
*631 ringosc\.dstage\[4\]\.id\.ts
*632 ringosc\.dstage\[5\]\.id\.d0
*633 ringosc\.dstage\[5\]\.id\.d1
*634 ringosc\.dstage\[5\]\.id\.d2
*635 ringosc\.dstage\[5\]\.id\.out
*636 ringosc\.dstage\[5\]\.id\.ts
*637 ringosc\.dstage\[6\]\.id\.d0
*638 ringosc\.dstage\[6\]\.id\.d1
*639 ringosc\.dstage\[6\]\.id\.d2
*640 ringosc\.dstage\[6\]\.id\.out
*641 ringosc\.dstage\[6\]\.id\.ts
*642 ringosc\.dstage\[7\]\.id\.d0
*643 ringosc\.dstage\[7\]\.id\.d1
*644 ringosc\.dstage\[7\]\.id\.d2
*645 ringosc\.dstage\[7\]\.id\.out
*646 ringosc\.dstage\[7\]\.id\.ts
*647 ringosc\.dstage\[8\]\.id\.d0
*648 ringosc\.dstage\[8\]\.id\.d1
*649 ringosc\.dstage\[8\]\.id\.d2
*650 ringosc\.dstage\[8\]\.id\.out
*651 ringosc\.dstage\[8\]\.id\.ts
*652 ringosc\.dstage\[9\]\.id\.d0
*653 ringosc\.dstage\[9\]\.id\.d1
*654 ringosc\.dstage\[9\]\.id\.d2
*655 ringosc\.dstage\[9\]\.id\.ts
*656 ringosc\.iss\.ctrl0
*657 ringosc\.iss\.d0
*658 ringosc\.iss\.d1
*659 ringosc\.iss\.d2
*660 ringosc\.iss\.one
*661 ANTENNA_1
*662 ANTENNA_2
*663 ANTENNA_3
*664 ANTENNA_4
*665 ANTENNA_5
*666 ANTENNA_6
*667 ANTENNA_7
*668 FILLER_0_104
*669 FILLER_0_111
*670 FILLER_0_113
*671 FILLER_0_117
*672 FILLER_0_129
*673 FILLER_0_137
*674 FILLER_0_141
*675 FILLER_0_145
*676 FILLER_0_155
*677 FILLER_0_167
*678 FILLER_0_169
*679 FILLER_0_176
*680 FILLER_0_188
*681 FILLER_0_197
*682 FILLER_0_209
*683 FILLER_0_221
*684 FILLER_0_225
*685 FILLER_0_237
*686 FILLER_0_24
*687 FILLER_0_249
*688 FILLER_0_253
*689 FILLER_0_265
*690 FILLER_0_29
*691 FILLER_0_3
*692 FILLER_0_37
*693 FILLER_0_43
*694 FILLER_0_55
*695 FILLER_0_57
*696 FILLER_0_68
*697 FILLER_0_77
*698 FILLER_0_82
*699 FILLER_0_85
*700 FILLER_0_92
*701 FILLER_10_104
*702 FILLER_10_127
*703 FILLER_10_133
*704 FILLER_10_139
*705 FILLER_10_141
*706 FILLER_10_154
*707 FILLER_10_159
*708 FILLER_10_171
*709 FILLER_10_179
*710 FILLER_10_185
*711 FILLER_10_190
*712 FILLER_10_197
*713 FILLER_10_229
*714 FILLER_10_237
*715 FILLER_10_24
*716 FILLER_10_249
*717 FILLER_10_253
*718 FILLER_10_263
*719 FILLER_10_29
*720 FILLER_10_3
*721 FILLER_10_35
*722 FILLER_10_40
*723 FILLER_10_49
*724 FILLER_10_55
*725 FILLER_10_67
*726 FILLER_10_76
*727 FILLER_10_83
*728 FILLER_10_85
*729 FILLER_10_91
*730 FILLER_10_96
*731 FILLER_11_109
*732 FILLER_11_113
*733 FILLER_11_117
*734 FILLER_11_122
*735 FILLER_11_130
*736 FILLER_11_151
*737 FILLER_11_163
*738 FILLER_11_167
*739 FILLER_11_169
*740 FILLER_11_174
*741 FILLER_11_18
*742 FILLER_11_197
*743 FILLER_11_205
*744 FILLER_11_211
*745 FILLER_11_222
*746 FILLER_11_225
*747 FILLER_11_229
*748 FILLER_11_251
*749 FILLER_11_256
*750 FILLER_11_26
*751 FILLER_11_264
*752 FILLER_11_3
*753 FILLER_11_34
*754 FILLER_11_43
*755 FILLER_11_52
*756 FILLER_11_57
*757 FILLER_11_61
*758 FILLER_11_70
*759 FILLER_11_92
*760 FILLER_11_97
*761 FILLER_12_105
*762 FILLER_12_117
*763 FILLER_12_125
*764 FILLER_12_130
*765 FILLER_12_138
*766 FILLER_12_14
*767 FILLER_12_141
*768 FILLER_12_146
*769 FILLER_12_153
*770 FILLER_12_158
*771 FILLER_12_163
*772 FILLER_12_189
*773 FILLER_12_194
*774 FILLER_12_197
*775 FILLER_12_201
*776 FILLER_12_225
*777 FILLER_12_240
*778 FILLER_12_245
*779 FILLER_12_25
*780 FILLER_12_250
*781 FILLER_12_253
*782 FILLER_12_263
*783 FILLER_12_29
*784 FILLER_12_3
*785 FILLER_12_38
*786 FILLER_12_46
*787 FILLER_12_52
*788 FILLER_12_58
*789 FILLER_12_66
*790 FILLER_12_71
*791 FILLER_12_79
*792 FILLER_12_83
*793 FILLER_12_85
*794 FILLER_12_89
*795 FILLER_12_94
*796 FILLER_13_102
*797 FILLER_13_107
*798 FILLER_13_111
*799 FILLER_13_113
*800 FILLER_13_119
*801 FILLER_13_124
*802 FILLER_13_135
*803 FILLER_13_139
*804 FILLER_13_160
*805 FILLER_13_169
*806 FILLER_13_174
*807 FILLER_13_185
*808 FILLER_13_197
*809 FILLER_13_203
*810 FILLER_13_212
*811 FILLER_13_217
*812 FILLER_13_222
*813 FILLER_13_225
*814 FILLER_13_229
*815 FILLER_13_24
*816 FILLER_13_241
*817 FILLER_13_262
*818 FILLER_13_29
*819 FILLER_13_3
*820 FILLER_13_40
*821 FILLER_13_46
*822 FILLER_13_55
*823 FILLER_13_57
*824 FILLER_13_65
*825 FILLER_13_86
*826 FILLER_13_91
*827 FILLER_14_109
*828 FILLER_14_13
*829 FILLER_14_135
*830 FILLER_14_139
*831 FILLER_14_141
*832 FILLER_14_154
*833 FILLER_14_159
*834 FILLER_14_164
*835 FILLER_14_176
*836 FILLER_14_183
*837 FILLER_14_195
*838 FILLER_14_197
*839 FILLER_14_207
*840 FILLER_14_21
*841 FILLER_14_214
*842 FILLER_14_240
*843 FILLER_14_251
*844 FILLER_14_253
*845 FILLER_14_257
*846 FILLER_14_265
*847 FILLER_14_27
*848 FILLER_14_29
*849 FILLER_14_3
*850 FILLER_14_41
*851 FILLER_14_46
*852 FILLER_14_55
*853 FILLER_14_62
*854 FILLER_14_67
*855 FILLER_14_77
*856 FILLER_14_83
*857 FILLER_14_85
*858 FILLER_14_9
*859 FILLER_15_100
*860 FILLER_15_105
*861 FILLER_15_111
*862 FILLER_15_113
*863 FILLER_15_120
*864 FILLER_15_13
*865 FILLER_15_132
*866 FILLER_15_140
*867 FILLER_15_162
*868 FILLER_15_169
*869 FILLER_15_190
*870 FILLER_15_195
*871 FILLER_15_199
*872 FILLER_15_220
*873 FILLER_15_225
*874 FILLER_15_231
*875 FILLER_15_236
*876 FILLER_15_25
*877 FILLER_15_258
*878 FILLER_15_3
*879 FILLER_15_40
*880 FILLER_15_48
*881 FILLER_15_55
*882 FILLER_15_57
*883 FILLER_15_62
*884 FILLER_15_68
*885 FILLER_15_89
*886 FILLER_15_9
*887 FILLER_16_121
*888 FILLER_16_126
*889 FILLER_16_134
*890 FILLER_16_141
*891 FILLER_16_146
*892 FILLER_16_159
*893 FILLER_16_166
*894 FILLER_16_181
*895 FILLER_16_193
*896 FILLER_16_197
*897 FILLER_16_201
*898 FILLER_16_227
*899 FILLER_16_236
*900 FILLER_16_24
*901 FILLER_16_247
*902 FILLER_16_251
*903 FILLER_16_253
*904 FILLER_16_265
*905 FILLER_16_29
*906 FILLER_16_3
*907 FILLER_16_36
*908 FILLER_16_45
*909 FILLER_16_53
*910 FILLER_16_60
*911 FILLER_16_67
*912 FILLER_16_72
*913 FILLER_16_83
*914 FILLER_16_85
*915 FILLER_16_95
*916 FILLER_17_11
*917 FILLER_17_110
*918 FILLER_17_113
*919 FILLER_17_123
*920 FILLER_17_129
*921 FILLER_17_134
*922 FILLER_17_145
*923 FILLER_17_150
*924 FILLER_17_163
*925 FILLER_17_167
*926 FILLER_17_169
*927 FILLER_17_17
*928 FILLER_17_173
*929 FILLER_17_181
*930 FILLER_17_202
*931 FILLER_17_214
*932 FILLER_17_219
*933 FILLER_17_223
*934 FILLER_17_225
*935 FILLER_17_247
*936 FILLER_17_259
*937 FILLER_17_265
*938 FILLER_17_28
*939 FILLER_17_3
*940 FILLER_17_37
*941 FILLER_17_45
*942 FILLER_17_52
*943 FILLER_17_57
*944 FILLER_17_62
*945 FILLER_17_66
*946 FILLER_17_71
*947 FILLER_17_93
*948 FILLER_17_98
*949 FILLER_18_11
*950 FILLER_18_113
*951 FILLER_18_135
*952 FILLER_18_139
*953 FILLER_18_141
*954 FILLER_18_145
*955 FILLER_18_15
*956 FILLER_18_151
*957 FILLER_18_155
*958 FILLER_18_176
*959 FILLER_18_180
*960 FILLER_18_184
*961 FILLER_18_195
*962 FILLER_18_197
*963 FILLER_18_201
*964 FILLER_18_205
*965 FILLER_18_209
*966 FILLER_18_220
*967 FILLER_18_227
*968 FILLER_18_238
*969 FILLER_18_250
*970 FILLER_18_253
*971 FILLER_18_265
*972 FILLER_18_27
*973 FILLER_18_29
*974 FILLER_18_3
*975 FILLER_18_42
*976 FILLER_18_54
*977 FILLER_18_60
*978 FILLER_18_65
*979 FILLER_18_74
*980 FILLER_18_79
*981 FILLER_18_83
*982 FILLER_18_85
*983 FILLER_18_91
*984 FILLER_19_102
*985 FILLER_19_106
*986 FILLER_19_111
*987 FILLER_19_113
*988 FILLER_19_118
*989 FILLER_19_124
*990 FILLER_19_132
*991 FILLER_19_153
*992 FILLER_19_157
*993 FILLER_19_167
*994 FILLER_19_169
*995 FILLER_19_173
*996 FILLER_19_178
*997 FILLER_19_201
*998 FILLER_19_212
*999 FILLER_19_225
*1000 FILLER_19_237
*1001 FILLER_19_249
*1002 FILLER_19_26
*1003 FILLER_19_261
*1004 FILLER_19_265
*1005 FILLER_19_3
*1006 FILLER_19_33
*1007 FILLER_19_55
*1008 FILLER_19_57
*1009 FILLER_19_69
*1010 FILLER_19_75
*1011 FILLER_19_96
*1012 FILLER_1_111
*1013 FILLER_1_113
*1014 FILLER_1_126
*1015 FILLER_1_131
*1016 FILLER_1_15
*1017 FILLER_1_155
*1018 FILLER_1_167
*1019 FILLER_1_169
*1020 FILLER_1_190
*1021 FILLER_1_212
*1022 FILLER_1_225
*1023 FILLER_1_237
*1024 FILLER_1_249
*1025 FILLER_1_261
*1026 FILLER_1_265
*1027 FILLER_1_3
*1028 FILLER_1_39
*1029 FILLER_1_47
*1030 FILLER_1_54
*1031 FILLER_1_57
*1032 FILLER_1_64
*1033 FILLER_1_73
*1034 FILLER_1_77
*1035 FILLER_1_85
*1036 FILLER_20_106
*1037 FILLER_20_111
*1038 FILLER_20_116
*1039 FILLER_20_128
*1040 FILLER_20_137
*1041 FILLER_20_141
*1042 FILLER_20_152
*1043 FILLER_20_158
*1044 FILLER_20_179
*1045 FILLER_20_18
*1046 FILLER_20_184
*1047 FILLER_20_189
*1048 FILLER_20_194
*1049 FILLER_20_197
*1050 FILLER_20_218
*1051 FILLER_20_230
*1052 FILLER_20_242
*1053 FILLER_20_250
*1054 FILLER_20_253
*1055 FILLER_20_26
*1056 FILLER_20_265
*1057 FILLER_20_29
*1058 FILLER_20_3
*1059 FILLER_20_36
*1060 FILLER_20_47
*1061 FILLER_20_52
*1062 FILLER_20_64
*1063 FILLER_20_76
*1064 FILLER_20_85
*1065 FILLER_20_96
*1066 FILLER_21_107
*1067 FILLER_21_111
*1068 FILLER_21_113
*1069 FILLER_21_120
*1070 FILLER_21_132
*1071 FILLER_21_144
*1072 FILLER_21_15
*1073 FILLER_21_153
*1074 FILLER_21_158
*1075 FILLER_21_166
*1076 FILLER_21_169
*1077 FILLER_21_173
*1078 FILLER_21_178
*1079 FILLER_21_190
*1080 FILLER_21_202
*1081 FILLER_21_214
*1082 FILLER_21_222
*1083 FILLER_21_225
*1084 FILLER_21_237
*1085 FILLER_21_249
*1086 FILLER_21_261
*1087 FILLER_21_265
*1088 FILLER_21_27
*1089 FILLER_21_3
*1090 FILLER_21_32
*1091 FILLER_21_40
*1092 FILLER_21_46
*1093 FILLER_21_55
*1094 FILLER_21_57
*1095 FILLER_21_61
*1096 FILLER_21_74
*1097 FILLER_21_79
*1098 FILLER_21_83
*1099 FILLER_21_87
*1100 FILLER_21_91
*1101 FILLER_21_96
*1102 FILLER_22_118
*1103 FILLER_22_126
*1104 FILLER_22_138
*1105 FILLER_22_141
*1106 FILLER_22_15
*1107 FILLER_22_162
*1108 FILLER_22_172
*1109 FILLER_22_184
*1110 FILLER_22_19
*1111 FILLER_22_197
*1112 FILLER_22_209
*1113 FILLER_22_221
*1114 FILLER_22_233
*1115 FILLER_22_245
*1116 FILLER_22_251
*1117 FILLER_22_253
*1118 FILLER_22_26
*1119 FILLER_22_265
*1120 FILLER_22_29
*1121 FILLER_22_3
*1122 FILLER_22_37
*1123 FILLER_22_44
*1124 FILLER_22_54
*1125 FILLER_22_65
*1126 FILLER_22_74
*1127 FILLER_22_79
*1128 FILLER_22_83
*1129 FILLER_22_85
*1130 FILLER_22_91
*1131 FILLER_22_96
*1132 FILLER_23_105
*1133 FILLER_23_111
*1134 FILLER_23_113
*1135 FILLER_23_122
*1136 FILLER_23_134
*1137 FILLER_23_140
*1138 FILLER_23_15
*1139 FILLER_23_161
*1140 FILLER_23_166
*1141 FILLER_23_169
*1142 FILLER_23_181
*1143 FILLER_23_193
*1144 FILLER_23_205
*1145 FILLER_23_217
*1146 FILLER_23_223
*1147 FILLER_23_225
*1148 FILLER_23_237
*1149 FILLER_23_249
*1150 FILLER_23_25
*1151 FILLER_23_261
*1152 FILLER_23_265
*1153 FILLER_23_29
*1154 FILLER_23_3
*1155 FILLER_23_37
*1156 FILLER_23_46
*1157 FILLER_23_54
*1158 FILLER_23_57
*1159 FILLER_23_63
*1160 FILLER_23_74
*1161 FILLER_23_81
*1162 FILLER_23_86
*1163 FILLER_23_93
*1164 FILLER_23_97
*1165 FILLER_24_101
*1166 FILLER_24_105
*1167 FILLER_24_110
*1168 FILLER_24_119
*1169 FILLER_24_132
*1170 FILLER_24_138
*1171 FILLER_24_141
*1172 FILLER_24_145
*1173 FILLER_24_150
*1174 FILLER_24_161
*1175 FILLER_24_166
*1176 FILLER_24_173
*1177 FILLER_24_185
*1178 FILLER_24_193
*1179 FILLER_24_197
*1180 FILLER_24_209
*1181 FILLER_24_221
*1182 FILLER_24_233
*1183 FILLER_24_245
*1184 FILLER_24_251
*1185 FILLER_24_253
*1186 FILLER_24_265
*1187 FILLER_24_27
*1188 FILLER_24_29
*1189 FILLER_24_3
*1190 FILLER_24_37
*1191 FILLER_24_46
*1192 FILLER_24_52
*1193 FILLER_24_57
*1194 FILLER_24_63
*1195 FILLER_24_73
*1196 FILLER_24_77
*1197 FILLER_24_81
*1198 FILLER_24_85
*1199 FILLER_24_95
*1200 FILLER_25_100
*1201 FILLER_25_111
*1202 FILLER_25_113
*1203 FILLER_25_117
*1204 FILLER_25_124
*1205 FILLER_25_129
*1206 FILLER_25_138
*1207 FILLER_25_150
*1208 FILLER_25_167
*1209 FILLER_25_169
*1210 FILLER_25_183
*1211 FILLER_25_195
*1212 FILLER_25_207
*1213 FILLER_25_219
*1214 FILLER_25_223
*1215 FILLER_25_225
*1216 FILLER_25_237
*1217 FILLER_25_249
*1218 FILLER_25_26
*1219 FILLER_25_261
*1220 FILLER_25_265
*1221 FILLER_25_3
*1222 FILLER_25_31
*1223 FILLER_25_38
*1224 FILLER_25_42
*1225 FILLER_25_47
*1226 FILLER_25_55
*1227 FILLER_25_57
*1228 FILLER_25_61
*1229 FILLER_25_82
*1230 FILLER_25_95
*1231 FILLER_26_105
*1232 FILLER_26_113
*1233 FILLER_26_124
*1234 FILLER_26_132
*1235 FILLER_26_137
*1236 FILLER_26_141
*1237 FILLER_26_152
*1238 FILLER_26_156
*1239 FILLER_26_168
*1240 FILLER_26_18
*1241 FILLER_26_180
*1242 FILLER_26_192
*1243 FILLER_26_197
*1244 FILLER_26_209
*1245 FILLER_26_221
*1246 FILLER_26_233
*1247 FILLER_26_245
*1248 FILLER_26_251
*1249 FILLER_26_253
*1250 FILLER_26_265
*1251 FILLER_26_27
*1252 FILLER_26_29
*1253 FILLER_26_3
*1254 FILLER_26_50
*1255 FILLER_26_56
*1256 FILLER_26_60
*1257 FILLER_26_68
*1258 FILLER_26_74
*1259 FILLER_26_78
*1260 FILLER_26_83
*1261 FILLER_26_85
*1262 FILLER_26_90
*1263 FILLER_26_97
*1264 FILLER_27_100
*1265 FILLER_27_111
*1266 FILLER_27_113
*1267 FILLER_27_121
*1268 FILLER_27_131
*1269 FILLER_27_139
*1270 FILLER_27_145
*1271 FILLER_27_15
*1272 FILLER_27_154
*1273 FILLER_27_167
*1274 FILLER_27_169
*1275 FILLER_27_175
*1276 FILLER_27_180
*1277 FILLER_27_192
*1278 FILLER_27_204
*1279 FILLER_27_216
*1280 FILLER_27_225
*1281 FILLER_27_237
*1282 FILLER_27_249
*1283 FILLER_27_26
*1284 FILLER_27_261
*1285 FILLER_27_265
*1286 FILLER_27_3
*1287 FILLER_27_32
*1288 FILLER_27_36
*1289 FILLER_27_48
*1290 FILLER_27_55
*1291 FILLER_27_57
*1292 FILLER_27_63
*1293 FILLER_27_68
*1294 FILLER_27_75
*1295 FILLER_27_91
*1296 FILLER_28_100
*1297 FILLER_28_105
*1298 FILLER_28_112
*1299 FILLER_28_121
*1300 FILLER_28_128
*1301 FILLER_28_135
*1302 FILLER_28_139
*1303 FILLER_28_141
*1304 FILLER_28_146
*1305 FILLER_28_15
*1306 FILLER_28_155
*1307 FILLER_28_159
*1308 FILLER_28_168
*1309 FILLER_28_175
*1310 FILLER_28_182
*1311 FILLER_28_189
*1312 FILLER_28_194
*1313 FILLER_28_197
*1314 FILLER_28_209
*1315 FILLER_28_221
*1316 FILLER_28_233
*1317 FILLER_28_245
*1318 FILLER_28_251
*1319 FILLER_28_253
*1320 FILLER_28_265
*1321 FILLER_28_27
*1322 FILLER_28_29
*1323 FILLER_28_3
*1324 FILLER_28_37
*1325 FILLER_28_43
*1326 FILLER_28_48
*1327 FILLER_28_57
*1328 FILLER_28_66
*1329 FILLER_28_74
*1330 FILLER_28_83
*1331 FILLER_28_85
*1332 FILLER_28_93
*1333 FILLER_29_100
*1334 FILLER_29_106
*1335 FILLER_29_111
*1336 FILLER_29_113
*1337 FILLER_29_122
*1338 FILLER_29_130
*1339 FILLER_29_136
*1340 FILLER_29_147
*1341 FILLER_29_15
*1342 FILLER_29_159
*1343 FILLER_29_167
*1344 FILLER_29_169
*1345 FILLER_29_173
*1346 FILLER_29_194
*1347 FILLER_29_214
*1348 FILLER_29_222
*1349 FILLER_29_225
*1350 FILLER_29_237
*1351 FILLER_29_249
*1352 FILLER_29_261
*1353 FILLER_29_265
*1354 FILLER_29_28
*1355 FILLER_29_3
*1356 FILLER_29_37
*1357 FILLER_29_44
*1358 FILLER_29_53
*1359 FILLER_29_57
*1360 FILLER_29_61
*1361 FILLER_29_70
*1362 FILLER_29_77
*1363 FILLER_29_82
*1364 FILLER_29_91
*1365 FILLER_2_105
*1366 FILLER_2_126
*1367 FILLER_2_130
*1368 FILLER_2_134
*1369 FILLER_2_139
*1370 FILLER_2_141
*1371 FILLER_2_15
*1372 FILLER_2_162
*1373 FILLER_2_184
*1374 FILLER_2_189
*1375 FILLER_2_195
*1376 FILLER_2_197
*1377 FILLER_2_207
*1378 FILLER_2_212
*1379 FILLER_2_224
*1380 FILLER_2_23
*1381 FILLER_2_236
*1382 FILLER_2_248
*1383 FILLER_2_253
*1384 FILLER_2_265
*1385 FILLER_2_27
*1386 FILLER_2_29
*1387 FILLER_2_3
*1388 FILLER_2_50
*1389 FILLER_2_55
*1390 FILLER_2_66
*1391 FILLER_2_77
*1392 FILLER_2_82
*1393 FILLER_2_85
*1394 FILLER_2_97
*1395 FILLER_30_104
*1396 FILLER_30_109
*1397 FILLER_30_116
*1398 FILLER_30_125
*1399 FILLER_30_132
*1400 FILLER_30_138
*1401 FILLER_30_141
*1402 FILLER_30_15
*1403 FILLER_30_151
*1404 FILLER_30_158
*1405 FILLER_30_167
*1406 FILLER_30_174
*1407 FILLER_30_186
*1408 FILLER_30_191
*1409 FILLER_30_195
*1410 FILLER_30_197
*1411 FILLER_30_209
*1412 FILLER_30_221
*1413 FILLER_30_233
*1414 FILLER_30_245
*1415 FILLER_30_251
*1416 FILLER_30_253
*1417 FILLER_30_265
*1418 FILLER_30_27
*1419 FILLER_30_29
*1420 FILLER_30_3
*1421 FILLER_30_37
*1422 FILLER_30_42
*1423 FILLER_30_47
*1424 FILLER_30_55
*1425 FILLER_30_64
*1426 FILLER_30_71
*1427 FILLER_30_78
*1428 FILLER_30_83
*1429 FILLER_30_85
*1430 FILLER_30_92
*1431 FILLER_30_99
*1432 FILLER_31_104
*1433 FILLER_31_111
*1434 FILLER_31_113
*1435 FILLER_31_122
*1436 FILLER_31_128
*1437 FILLER_31_138
*1438 FILLER_31_143
*1439 FILLER_31_15
*1440 FILLER_31_151
*1441 FILLER_31_159
*1442 FILLER_31_167
*1443 FILLER_31_169
*1444 FILLER_31_177
*1445 FILLER_31_186
*1446 FILLER_31_198
*1447 FILLER_31_210
*1448 FILLER_31_222
*1449 FILLER_31_225
*1450 FILLER_31_237
*1451 FILLER_31_24
*1452 FILLER_31_249
*1453 FILLER_31_261
*1454 FILLER_31_265
*1455 FILLER_31_3
*1456 FILLER_31_33
*1457 FILLER_31_41
*1458 FILLER_31_48
*1459 FILLER_31_53
*1460 FILLER_31_57
*1461 FILLER_31_67
*1462 FILLER_31_71
*1463 FILLER_31_83
*1464 FILLER_31_88
*1465 FILLER_31_95
*1466 FILLER_32_104
*1467 FILLER_32_108
*1468 FILLER_32_118
*1469 FILLER_32_127
*1470 FILLER_32_132
*1471 FILLER_32_141
*1472 FILLER_32_149
*1473 FILLER_32_15
*1474 FILLER_32_155
*1475 FILLER_32_167
*1476 FILLER_32_173
*1477 FILLER_32_178
*1478 FILLER_32_183
*1479 FILLER_32_195
*1480 FILLER_32_197
*1481 FILLER_32_209
*1482 FILLER_32_221
*1483 FILLER_32_23
*1484 FILLER_32_233
*1485 FILLER_32_245
*1486 FILLER_32_251
*1487 FILLER_32_253
*1488 FILLER_32_265
*1489 FILLER_32_27
*1490 FILLER_32_29
*1491 FILLER_32_3
*1492 FILLER_32_37
*1493 FILLER_32_43
*1494 FILLER_32_48
*1495 FILLER_32_53
*1496 FILLER_32_63
*1497 FILLER_32_74
*1498 FILLER_32_82
*1499 FILLER_32_85
*1500 FILLER_32_92
*1501 FILLER_32_96
*1502 FILLER_33_111
*1503 FILLER_33_113
*1504 FILLER_33_122
*1505 FILLER_33_126
*1506 FILLER_33_132
*1507 FILLER_33_140
*1508 FILLER_33_149
*1509 FILLER_33_15
*1510 FILLER_33_162
*1511 FILLER_33_167
*1512 FILLER_33_169
*1513 FILLER_33_177
*1514 FILLER_33_189
*1515 FILLER_33_201
*1516 FILLER_33_213
*1517 FILLER_33_221
*1518 FILLER_33_225
*1519 FILLER_33_237
*1520 FILLER_33_249
*1521 FILLER_33_261
*1522 FILLER_33_265
*1523 FILLER_33_27
*1524 FILLER_33_3
*1525 FILLER_33_37
*1526 FILLER_33_41
*1527 FILLER_33_47
*1528 FILLER_33_52
*1529 FILLER_33_57
*1530 FILLER_33_61
*1531 FILLER_33_65
*1532 FILLER_33_70
*1533 FILLER_33_79
*1534 FILLER_33_83
*1535 FILLER_33_90
*1536 FILLER_33_97
*1537 FILLER_34_103
*1538 FILLER_34_116
*1539 FILLER_34_121
*1540 FILLER_34_130
*1541 FILLER_34_139
*1542 FILLER_34_141
*1543 FILLER_34_145
*1544 FILLER_34_15
*1545 FILLER_34_154
*1546 FILLER_34_161
*1547 FILLER_34_168
*1548 FILLER_34_173
*1549 FILLER_34_178
*1550 FILLER_34_190
*1551 FILLER_34_197
*1552 FILLER_34_209
*1553 FILLER_34_221
*1554 FILLER_34_233
*1555 FILLER_34_245
*1556 FILLER_34_251
*1557 FILLER_34_253
*1558 FILLER_34_265
*1559 FILLER_34_27
*1560 FILLER_34_29
*1561 FILLER_34_3
*1562 FILLER_34_33
*1563 FILLER_34_41
*1564 FILLER_34_50
*1565 FILLER_34_56
*1566 FILLER_34_60
*1567 FILLER_34_64
*1568 FILLER_34_73
*1569 FILLER_34_82
*1570 FILLER_34_85
*1571 FILLER_34_91
*1572 FILLER_34_98
*1573 FILLER_35_100
*1574 FILLER_35_113
*1575 FILLER_35_120
*1576 FILLER_35_127
*1577 FILLER_35_139
*1578 FILLER_35_141
*1579 FILLER_35_147
*1580 FILLER_35_15
*1581 FILLER_35_152
*1582 FILLER_35_157
*1583 FILLER_35_164
*1584 FILLER_35_169
*1585 FILLER_35_181
*1586 FILLER_35_193
*1587 FILLER_35_197
*1588 FILLER_35_209
*1589 FILLER_35_221
*1590 FILLER_35_225
*1591 FILLER_35_237
*1592 FILLER_35_249
*1593 FILLER_35_253
*1594 FILLER_35_265
*1595 FILLER_35_27
*1596 FILLER_35_29
*1597 FILLER_35_3
*1598 FILLER_35_35
*1599 FILLER_35_42
*1600 FILLER_35_49
*1601 FILLER_35_54
*1602 FILLER_35_57
*1603 FILLER_35_61
*1604 FILLER_35_67
*1605 FILLER_35_75
*1606 FILLER_35_83
*1607 FILLER_35_85
*1608 FILLER_35_90
*1609 FILLER_35_95
*1610 FILLER_3_107
*1611 FILLER_3_111
*1612 FILLER_3_113
*1613 FILLER_3_123
*1614 FILLER_3_128
*1615 FILLER_3_136
*1616 FILLER_3_140
*1617 FILLER_3_145
*1618 FILLER_3_15
*1619 FILLER_3_156
*1620 FILLER_3_167
*1621 FILLER_3_169
*1622 FILLER_3_181
*1623 FILLER_3_193
*1624 FILLER_3_201
*1625 FILLER_3_223
*1626 FILLER_3_225
*1627 FILLER_3_229
*1628 FILLER_3_23
*1629 FILLER_3_241
*1630 FILLER_3_253
*1631 FILLER_3_265
*1632 FILLER_3_28
*1633 FILLER_3_3
*1634 FILLER_3_36
*1635 FILLER_3_46
*1636 FILLER_3_53
*1637 FILLER_3_57
*1638 FILLER_3_65
*1639 FILLER_3_73
*1640 FILLER_3_80
*1641 FILLER_4_109
*1642 FILLER_4_11
*1643 FILLER_4_124
*1644 FILLER_4_135
*1645 FILLER_4_139
*1646 FILLER_4_141
*1647 FILLER_4_145
*1648 FILLER_4_15
*1649 FILLER_4_157
*1650 FILLER_4_165
*1651 FILLER_4_170
*1652 FILLER_4_174
*1653 FILLER_4_195
*1654 FILLER_4_197
*1655 FILLER_4_201
*1656 FILLER_4_209
*1657 FILLER_4_21
*1658 FILLER_4_214
*1659 FILLER_4_236
*1660 FILLER_4_247
*1661 FILLER_4_251
*1662 FILLER_4_253
*1663 FILLER_4_265
*1664 FILLER_4_27
*1665 FILLER_4_29
*1666 FILLER_4_3
*1667 FILLER_4_35
*1668 FILLER_4_39
*1669 FILLER_4_51