* NGSPICE file created from dll.ext - technology: sky130A

* Black-box entry subcircuit for sky130_fd_sc_hd__xnor2_1 abstract view
.subckt sky130_fd_sc_hd__xnor2_1 A B VGND VNB VPB VPWR Y
.ends

* Black-box entry subcircuit for sky130_fd_sc_hd__fill_1 abstract view
.subckt sky130_fd_sc_hd__fill_1 VGND VNB VPB VPWR
.ends

* Black-box entry subcircuit for sky130_fd_sc_hd__mux2_1 abstract view
.subckt sky130_fd_sc_hd__mux2_1 A0 A1 S VGND VNB VPB VPWR X
.ends

* Black-box entry subcircuit for sky130_fd_sc_hd__decap_6 abstract view
.subckt sky130_fd_sc_hd__decap_6 VGND VNB VPB VPWR
.ends

* Black-box entry subcircuit for sky130_fd_sc_hd__tapvpwrvgnd_1 abstract view
.subckt sky130_fd_sc_hd__tapvpwrvgnd_1 VGND VPWR
.ends

* Black-box entry subcircuit for sky130_fd_sc_hd__fill_2 abstract view
.subckt sky130_fd_sc_hd__fill_2 VGND VNB VPB VPWR
.ends

* Black-box entry subcircuit for sky130_fd_sc_hd__inv_1 abstract view
.subckt sky130_fd_sc_hd__inv_1 A VGND VNB VPB VPWR Y
.ends

* Black-box entry subcircuit for sky130_fd_sc_hd__decap_4 abstract view
.subckt sky130_fd_sc_hd__decap_4 VGND VNB VPB VPWR
.ends

* Black-box entry subcircuit for sky130_fd_sc_hd__clkbuf_2 abstract view
.subckt sky130_fd_sc_hd__clkbuf_2 A VGND VNB VPB VPWR X
.ends

* Black-box entry subcircuit for sky130_fd_sc_hd__clkbuf_1 abstract view
.subckt sky130_fd_sc_hd__clkbuf_1 A VGND VNB VPB VPWR X
.ends

* Black-box entry subcircuit for sky130_ef_sc_hd__decap_12 abstract view
.subckt sky130_ef_sc_hd__decap_12 VPWR VGND VPB VNB
.ends

* Black-box entry subcircuit for sky130_fd_sc_hd__a21o_1 abstract view
.subckt sky130_fd_sc_hd__a21o_1 A1 A2 B1 VGND VNB VPB VPWR X
.ends

* Black-box entry subcircuit for sky130_fd_sc_hd__decap_3 abstract view
.subckt sky130_fd_sc_hd__decap_3 VGND VNB VPB VPWR
.ends

* Black-box entry subcircuit for sky130_fd_sc_hd__dfrtp_1 abstract view
.subckt sky130_fd_sc_hd__dfrtp_1 CLK D RESET_B VGND VNB VPB VPWR Q
.ends

* Black-box entry subcircuit for sky130_fd_sc_hd__einvp_1 abstract view
.subckt sky130_fd_sc_hd__einvp_1 A TE VGND VNB VPB VPWR Z
.ends

* Black-box entry subcircuit for sky130_fd_sc_hd__decap_8 abstract view
.subckt sky130_fd_sc_hd__decap_8 VGND VNB VPB VPWR
.ends

* Black-box entry subcircuit for sky130_fd_sc_hd__nor2_1 abstract view
.subckt sky130_fd_sc_hd__nor2_1 A B VGND VNB VPB VPWR Y
.ends

* Black-box entry subcircuit for sky130_fd_sc_hd__einvn_2 abstract view
.subckt sky130_fd_sc_hd__einvn_2 A TE_B VGND VNB VPB VPWR Z
.ends

* Black-box entry subcircuit for sky130_fd_sc_hd__nand2_1 abstract view
.subckt sky130_fd_sc_hd__nand2_1 A B VGND VNB VPB VPWR Y
.ends

* Black-box entry subcircuit for sky130_fd_sc_hd__diode_2 abstract view
.subckt sky130_fd_sc_hd__diode_2 DIODE VGND VNB VPB VPWR
.ends

* Black-box entry subcircuit for sky130_fd_sc_hd__o21a_1 abstract view
.subckt sky130_fd_sc_hd__o21a_1 A1 A2 B1 VGND VNB VPB VPWR X
.ends

* Black-box entry subcircuit for sky130_fd_sc_hd__and3_1 abstract view
.subckt sky130_fd_sc_hd__and3_1 A B C VGND VNB VPB VPWR X
.ends

* Black-box entry subcircuit for sky130_fd_sc_hd__dlymetal6s2s_1 abstract view
.subckt sky130_fd_sc_hd__dlymetal6s2s_1 A VGND VNB VPB VPWR X
.ends

* Black-box entry subcircuit for sky130_fd_sc_hd__nor2_2 abstract view
.subckt sky130_fd_sc_hd__nor2_2 A B VGND VNB VPB VPWR Y
.ends

* Black-box entry subcircuit for sky130_fd_sc_hd__einvn_1 abstract view
.subckt sky130_fd_sc_hd__einvn_1 A TE_B VGND VNB VPB VPWR Z
.ends

* Black-box entry subcircuit for sky130_fd_sc_hd__and2b_1 abstract view
.subckt sky130_fd_sc_hd__and2b_1 A_N B VGND VNB VPB VPWR X
.ends

* Black-box entry subcircuit for sky130_fd_sc_hd__xor2_1 abstract view
.subckt sky130_fd_sc_hd__xor2_1 A B VGND VNB VPB VPWR X
.ends

* Black-box entry subcircuit for sky130_fd_sc_hd__einvp_2 abstract view
.subckt sky130_fd_sc_hd__einvp_2 A TE VGND VNB VPB VPWR Z
.ends

* Black-box entry subcircuit for sky130_fd_sc_hd__a22o_1 abstract view
.subckt sky130_fd_sc_hd__a22o_1 A1 A2 B1 B2 VGND VNB VPB VPWR X
.ends

* Black-box entry subcircuit for sky130_fd_sc_hd__nor2b_1 abstract view
.subckt sky130_fd_sc_hd__nor2b_1 A B_N VGND VNB VPB VPWR Y
.ends

* Black-box entry subcircuit for sky130_fd_sc_hd__o31a_1 abstract view
.subckt sky130_fd_sc_hd__o31a_1 A1 A2 A3 B1 VGND VNB VPB VPWR X
.ends

* Black-box entry subcircuit for sky130_fd_sc_hd__nand2b_1 abstract view
.subckt sky130_fd_sc_hd__nand2b_1 A_N B VGND VNB VPB VPWR Y
.ends

* Black-box entry subcircuit for sky130_fd_sc_hd__and2_1 abstract view
.subckt sky130_fd_sc_hd__and2_1 A B VGND VNB VPB VPWR X
.ends

* Black-box entry subcircuit for sky130_fd_sc_hd__a21oi_1 abstract view
.subckt sky130_fd_sc_hd__a21oi_1 A1 A2 B1 VGND VNB VPB VPWR Y
.ends

* Black-box entry subcircuit for sky130_fd_sc_hd__buf_2 abstract view
.subckt sky130_fd_sc_hd__buf_2 A VGND VNB VPB VPWR X
.ends

* Black-box entry subcircuit for sky130_fd_sc_hd__and4bb_1 abstract view
.subckt sky130_fd_sc_hd__and4bb_1 A_N B_N C D VGND VNB VPB VPWR X
.ends

* Black-box entry subcircuit for sky130_fd_sc_hd__nand3_1 abstract view
.subckt sky130_fd_sc_hd__nand3_1 A B C VGND VNB VPB VPWR Y
.ends

* Black-box entry subcircuit for sky130_fd_sc_hd__einvp_4 abstract view
.subckt sky130_fd_sc_hd__einvp_4 A TE VGND VNB VPB VPWR Z
.ends

* Black-box entry subcircuit for sky130_fd_sc_hd__o211a_1 abstract view
.subckt sky130_fd_sc_hd__o211a_1 A1 A2 B1 C1 VGND VNB VPB VPWR X
.ends

* Black-box entry subcircuit for sky130_fd_sc_hd__inv_2 abstract view
.subckt sky130_fd_sc_hd__inv_2 A VGND VNB VPB VPWR Y
.ends

* Black-box entry subcircuit for sky130_fd_sc_hd__a221o_2 abstract view
.subckt sky130_fd_sc_hd__a221o_2 A1 A2 B1 B2 C1 VGND VNB VPB VPWR X
.ends

* Black-box entry subcircuit for sky130_fd_sc_hd__a41o_1 abstract view
.subckt sky130_fd_sc_hd__a41o_1 A1 A2 A3 A4 B1 VGND VNB VPB VPWR X
.ends

* Black-box entry subcircuit for sky130_fd_sc_hd__einvn_4 abstract view
.subckt sky130_fd_sc_hd__einvn_4 A TE_B VGND VNB VPB VPWR Z
.ends

* Black-box entry subcircuit for sky130_fd_sc_hd__a21bo_1 abstract view
.subckt sky130_fd_sc_hd__a21bo_1 A1 A2 B1_N VGND VNB VPB VPWR X
.ends

* Black-box entry subcircuit for sky130_fd_sc_hd__o21ba_1 abstract view
.subckt sky130_fd_sc_hd__o21ba_1 A1 A2 B1_N VGND VNB VPB VPWR X
.ends

* Black-box entry subcircuit for sky130_fd_sc_hd__a31o_1 abstract view
.subckt sky130_fd_sc_hd__a31o_1 A1 A2 A3 B1 VGND VNB VPB VPWR X
.ends

* Black-box entry subcircuit for sky130_fd_sc_hd__and4b_1 abstract view
.subckt sky130_fd_sc_hd__and4b_1 A_N B C D VGND VNB VPB VPWR X
.ends

* Black-box entry subcircuit for sky130_fd_sc_hd__a221o_1 abstract view
.subckt sky130_fd_sc_hd__a221o_1 A1 A2 B1 B2 C1 VGND VNB VPB VPWR X
.ends

* Black-box entry subcircuit for sky130_fd_sc_hd__nand3b_1 abstract view
.subckt sky130_fd_sc_hd__nand3b_1 A_N B C VGND VNB VPB VPWR Y
.ends

* Black-box entry subcircuit for sky130_fd_sc_hd__a2bb2o_2 abstract view
.subckt sky130_fd_sc_hd__a2bb2o_2 A1_N A2_N B1 B2 VGND VNB VPB VPWR X
.ends

* Black-box entry subcircuit for sky130_fd_sc_hd__nand4_1 abstract view
.subckt sky130_fd_sc_hd__nand4_1 A B C D VGND VNB VPB VPWR Y
.ends

* Black-box entry subcircuit for sky130_fd_sc_hd__dfrtp_2 abstract view
.subckt sky130_fd_sc_hd__dfrtp_2 CLK D RESET_B VGND VNB VPB VPWR Q
.ends

* Black-box entry subcircuit for sky130_fd_sc_hd__clkbuf_16 abstract view
.subckt sky130_fd_sc_hd__clkbuf_16 A VGND VNB VPB VPWR X
.ends

* Black-box entry subcircuit for sky130_fd_sc_hd__o21ai_1 abstract view
.subckt sky130_fd_sc_hd__o21ai_1 A1 A2 B1 VGND VNB VPB VPWR Y
.ends

* Black-box entry subcircuit for sky130_fd_sc_hd__clkinv_1 abstract view
.subckt sky130_fd_sc_hd__clkinv_1 A VGND VNB VPB VPWR Y
.ends

* Black-box entry subcircuit for sky130_fd_sc_hd__buf_4 abstract view
.subckt sky130_fd_sc_hd__buf_4 A VGND VNB VPB VPWR X
.ends

* Black-box entry subcircuit for sky130_fd_sc_hd__and3b_1 abstract view
.subckt sky130_fd_sc_hd__and3b_1 A_N B C VGND VNB VPB VPWR X
.ends

* Black-box entry subcircuit for sky130_fd_sc_hd__clkinv_2 abstract view
.subckt sky130_fd_sc_hd__clkinv_2 A VGND VNB VPB VPWR Y
.ends

* Black-box entry subcircuit for sky130_fd_sc_hd__clkinv_4 abstract view
.subckt sky130_fd_sc_hd__clkinv_4 A VGND VNB VPB VPWR Y
.ends

* Black-box entry subcircuit for sky130_fd_sc_hd__clkinv_8 abstract view
.subckt sky130_fd_sc_hd__clkinv_8 A VGND VNB VPB VPWR Y
.ends

* Black-box entry subcircuit for sky130_fd_sc_hd__o22a_1 abstract view
.subckt sky130_fd_sc_hd__o22a_1 A1 A2 B1 B2 VGND VNB VPB VPWR X
.ends

* Black-box entry subcircuit for sky130_fd_sc_hd__einvn_8 abstract view
.subckt sky130_fd_sc_hd__einvn_8 A TE_B VGND VNB VPB VPWR Z
.ends

* Black-box entry subcircuit for sky130_fd_sc_hd__a32o_1 abstract view
.subckt sky130_fd_sc_hd__a32o_1 A1 A2 A3 B1 B2 VGND VNB VPB VPWR X
.ends

* Black-box entry subcircuit for sky130_fd_sc_hd__a211o_1 abstract view
.subckt sky130_fd_sc_hd__a211o_1 A1 A2 B1 C1 VGND VNB VPB VPWR X
.ends

* Black-box entry subcircuit for sky130_fd_sc_hd__conb_1 abstract view
.subckt sky130_fd_sc_hd__conb_1 VGND VNB VPB VPWR HI LO
.ends

* Black-box entry subcircuit for sky130_fd_sc_hd__nand3b_2 abstract view
.subckt sky130_fd_sc_hd__nand3b_2 A_N B C VGND VNB VPB VPWR Y
.ends

* Black-box entry subcircuit for sky130_fd_sc_hd__or2_1 abstract view
.subckt sky130_fd_sc_hd__or2_1 A B VGND VNB VPB VPWR X
.ends

* Black-box entry subcircuit for sky130_fd_sc_hd__and4_1 abstract view
.subckt sky130_fd_sc_hd__and4_1 A B C D VGND VNB VPB VPWR X
.ends

* Black-box entry subcircuit for sky130_fd_sc_hd__einvp_8 abstract view
.subckt sky130_fd_sc_hd__einvp_8 A TE VGND VNB VPB VPWR Z
.ends

* Black-box entry subcircuit for sky130_fd_sc_hd__nor3_1 abstract view
.subckt sky130_fd_sc_hd__nor3_1 A B C VGND VNB VPB VPWR Y
.ends

.subckt dll VGND VPWR clockp[0] clockp[1] dco div[0] div[1] div[2] div[3] div[4] div[5]
+ div[6] div[7] enable ext_trim[0] ext_trim[10] ext_trim[11] ext_trim[12] ext_trim[13]
+ ext_trim[14] ext_trim[15] ext_trim[16] ext_trim[17] ext_trim[18] ext_trim[19] ext_trim[1]
+ ext_trim[20] ext_trim[21] ext_trim[22] ext_trim[23] ext_trim[24] ext_trim[25] ext_trim[2]
+ ext_trim[3] ext_trim[4] ext_trim[5] ext_trim[6] ext_trim[7] ext_trim[8] ext_trim[9]
+ osc resetb
X_432_ dll_control.count0\[1\] _165_ VGND VGND VPWR VPWR _166_ sky130_fd_sc_hd__xnor2_1
XFILLER_13_111 VGND VGND VPWR VPWR sky130_fd_sc_hd__fill_1
X_501_ dll_control.count4\[2\] dll_control.count3\[2\] _211_ VGND VGND VPWR VPWR _223_
+ sky130_fd_sc_hd__mux2_1
XFILLER_26_74 VGND VGND VPWR VPWR sky130_fd_sc_hd__fill_1
XFILLER_26_85 VGND VGND VPWR VPWR sky130_fd_sc_hd__fill_1
XFILLER_9_126 VGND VGND VPWR VPWR sky130_fd_sc_hd__decap_6
XTAP_TAPCELL_ROW_23_183 VGND VPWR sky130_fd_sc_hd__tapvpwrvgnd_1
XFILLER_3_23 VGND VGND VPWR VPWR sky130_fd_sc_hd__fill_2
Xringosc.dstage\[1\].id.delayint0 ringosc.dstage\[1\].id.d1 VGND VGND VPWR VPWR ringosc.dstage\[1\].id.d2
+ sky130_fd_sc_hd__inv_1
XFILLER_8_192 VGND VGND VPWR VPWR sky130_fd_sc_hd__decap_4
XTAP_TAPCELL_ROW_29_209 VGND VPWR sky130_fd_sc_hd__tapvpwrvgnd_1
XTAP_TAPCELL_ROW_6_107 VGND VPWR sky130_fd_sc_hd__tapvpwrvgnd_1
Xfanout116 net125 VGND VGND VPWR VPWR net116 sky130_fd_sc_hd__clkbuf_2
Xfanout127 net128 VGND VGND VPWR VPWR net127 sky130_fd_sc_hd__clkbuf_2
Xfanout138 net139 VGND VGND VPWR VPWR net138 sky130_fd_sc_hd__clkbuf_1
Xfanout105 net106 VGND VGND VPWR VPWR net105 sky130_fd_sc_hd__clkbuf_1
XFILLER_27_225 VPWR VGND VPWR VGND sky130_ef_sc_hd__decap_12
X_415_ _146_ _148_ dll_control.accum\[6\] VGND VGND VPWR VPWR _149_ sky130_fd_sc_hd__a21o_1
XFILLER_5_173 VGND VGND VPWR VPWR sky130_fd_sc_hd__fill_1
XFILLER_30_209 VPWR VGND VPWR VGND sky130_ef_sc_hd__decap_12
XFILLER_23_261 VGND VGND VPWR VPWR sky130_fd_sc_hd__decap_4
XFILLER_23_86 VGND VGND VPWR VPWR sky130_fd_sc_hd__decap_3
XFILLER_23_97 VGND VGND VPWR VPWR sky130_fd_sc_hd__fill_1
X_895_ clockp_buffer_in\[0\] _120_ _046_ VGND VGND VPWR VPWR dll_control.count3\[2\]
+ sky130_fd_sc_hd__dfrtp_1
Xringosc.dstage\[11\].id.delayen1 ringosc.dstage\[11\].id.d0 itrim\[24\] VGND VGND
+ VPWR VPWR ringosc.dstage\[11\].id.d1 sky130_fd_sc_hd__einvp_1
XFILLER_0_24 VGND VGND VPWR VPWR sky130_fd_sc_hd__decap_4
XFILLER_0_57 VGND VGND VPWR VPWR sky130_fd_sc_hd__decap_4
XFILLER_0_68 VGND VGND VPWR VPWR sky130_fd_sc_hd__fill_2
XFILLER_9_55 VGND VGND VPWR VPWR sky130_fd_sc_hd__fill_1
XFILLER_9_77 VGND VGND VPWR VPWR sky130_fd_sc_hd__fill_2
XFILLER_9_99 VGND VGND VPWR VPWR sky130_fd_sc_hd__decap_6
XFILLER_20_242 VGND VGND VPWR VPWR sky130_fd_sc_hd__decap_8
XFILLER_20_253 VPWR VGND VPWR VGND sky130_ef_sc_hd__decap_12
XFILLER_18_42 VGND VGND VPWR VPWR sky130_fd_sc_hd__decap_3
X_680_ _347_ VGND VGND VPWR VPWR _078_ sky130_fd_sc_hd__clkbuf_1
XFILLER_34_85 VGND VGND VPWR VPWR sky130_fd_sc_hd__fill_1
XFILLER_34_41 VGND VGND VPWR VPWR sky130_fd_sc_hd__fill_2
XFILLER_11_264 VGND VGND VPWR VPWR sky130_fd_sc_hd__fill_2
XFILLER_7_235 VGND VGND VPWR VPWR sky130_fd_sc_hd__decap_4
X_878_ clockp_buffer_in\[0\] _103_ _029_ VGND VGND VPWR VPWR dll_control.count5\[3\]
+ sky130_fd_sc_hd__dfrtp_1
XFILLER_29_106 VGND VGND VPWR VPWR sky130_fd_sc_hd__fill_2
XFILLER_20_76 VGND VGND VPWR VPWR sky130_fd_sc_hd__decap_8
X_732_ net120 ext_trim[13] _381_ VGND VGND VPWR VPWR itrim\[13\] sky130_fd_sc_hd__a21o_1
X_801_ net131 _405_ VGND VGND VPWR VPWR _031_ sky130_fd_sc_hd__nor2_1
Xringosc.dstage\[10\].id.delayenb0 ringosc.dstage\[10\].id.ts itrim\[10\] VGND VGND
+ VPWR VPWR ringosc.dstage\[10\].id.out sky130_fd_sc_hd__einvn_2
X_663_ _332_ _333_ VGND VGND VPWR VPWR _334_ sky130_fd_sc_hd__nand2_1
XFILLER_28_194 VGND VGND VPWR VPWR sky130_fd_sc_hd__fill_2
X_594_ _273_ VGND VGND VPWR VPWR _090_ sky130_fd_sc_hd__clkbuf_1
Xringosc.dstage\[9\].id.delayenb0 ringosc.dstage\[9\].id.ts itrim\[9\] VGND VGND VPWR
+ VPWR ringosc.dstage\[10\].id.in sky130_fd_sc_hd__einvn_2
XFILLER_6_34 VGND VGND VPWR VPWR sky130_fd_sc_hd__fill_2
XANTENNA_5 ext_trim[24] VGND VGND VPWR VPWR sky130_fd_sc_hd__diode_2
XFILLER_13_3 VGND VGND VPWR VPWR sky130_fd_sc_hd__fill_1
XFILLER_34_197 VPWR VGND VPWR VGND sky130_ef_sc_hd__decap_12
XFILLER_31_53 VGND VGND VPWR VPWR sky130_fd_sc_hd__decap_3
X_715_ net118 ext_trim[5] _363_ VGND VGND VPWR VPWR itrim\[5\] sky130_fd_sc_hd__a21o_1
XFILLER_31_167 VGND VGND VPWR VPWR sky130_fd_sc_hd__fill_1
XFILLER_16_197 VGND VGND VPWR VPWR sky130_fd_sc_hd__fill_1
X_577_ _264_ VGND VGND VPWR VPWR _098_ sky130_fd_sc_hd__clkbuf_1
XTAP_TAPCELL_ROW_18_159 VGND VPWR sky130_fd_sc_hd__tapvpwrvgnd_1
X_646_ _314_ _315_ _316_ VGND VGND VPWR VPWR _317_ sky130_fd_sc_hd__o21a_1
X_500_ _222_ VGND VGND VPWR VPWR _133_ sky130_fd_sc_hd__clkbuf_1
X_431_ dll_control.accum\[1\] dll_control.count8\[1\] VGND VGND VPWR VPWR _165_ sky130_fd_sc_hd__xnor2_1
XFILLER_9_105 VGND VGND VPWR VPWR sky130_fd_sc_hd__fill_1
XFILLER_26_97 VGND VGND VPWR VPWR sky130_fd_sc_hd__fill_2
XFILLER_3_57 VGND VGND VPWR VPWR sky130_fd_sc_hd__fill_1
XFILLER_3_46 VGND VGND VPWR VPWR sky130_fd_sc_hd__fill_2
X_629_ _297_ _298_ _299_ VGND VGND VPWR VPWR _300_ sky130_fd_sc_hd__and3_1
XTAP_TAPCELL_ROW_14_140 VGND VPWR sky130_fd_sc_hd__tapvpwrvgnd_1
XFILLER_27_204 VPWR VGND VPWR VGND sky130_ef_sc_hd__decap_12
Xfanout117 net125 VGND VGND VPWR VPWR net117 sky130_fd_sc_hd__clkbuf_1
Xfanout128 net129 VGND VGND VPWR VPWR net128 sky130_fd_sc_hd__dlymetal6s2s_1
Xfanout139 dco VGND VGND VPWR VPWR net139 sky130_fd_sc_hd__clkbuf_1
Xfanout106 net107 VGND VGND VPWR VPWR net106 sky130_fd_sc_hd__clkbuf_1
XFILLER_27_237 VPWR VGND VPWR VGND sky130_ef_sc_hd__decap_12
XFILLER_10_104 VGND VGND VPWR VPWR sky130_fd_sc_hd__decap_3
XFILLER_10_159 VPWR VGND VPWR VGND sky130_ef_sc_hd__decap_12
XFILLER_12_66 VGND VGND VPWR VPWR sky130_fd_sc_hd__fill_2
X_414_ dll_control.count0\[5\] _147_ VGND VGND VPWR VPWR _148_ sky130_fd_sc_hd__nand2_1
XFILLER_5_141 VGND VGND VPWR VPWR sky130_fd_sc_hd__fill_1
XFILLER_32_251 VGND VGND VPWR VPWR sky130_fd_sc_hd__fill_1
XPHY_EDGE_ROW_12_Right_12 VGND VGND VPWR VPWR sky130_fd_sc_hd__decap_3
XPHY_EDGE_ROW_21_Right_21 VGND VGND VPWR VPWR sky130_fd_sc_hd__decap_3
XFILLER_23_54 VGND VGND VPWR VPWR sky130_fd_sc_hd__fill_2
XPHY_EDGE_ROW_30_Right_30 VGND VGND VPWR VPWR sky130_fd_sc_hd__decap_3
X_894_ clockp_buffer_in\[0\] _119_ _045_ VGND VGND VPWR VPWR dll_control.count3\[1\]
+ sky130_fd_sc_hd__dfrtp_1
XFILLER_14_240 VGND VGND VPWR VPWR sky130_fd_sc_hd__fill_2
XTAP_TAPCELL_ROW_31_216 VGND VPWR sky130_fd_sc_hd__tapvpwrvgnd_1
XFILLER_14_251 VGND VGND VPWR VPWR sky130_fd_sc_hd__fill_1
XFILLER_20_265 VGND VGND VPWR VPWR sky130_fd_sc_hd__fill_1
XFILLER_18_54 VGND VGND VPWR VPWR sky130_fd_sc_hd__fill_2
XFILLER_18_65 VGND VGND VPWR VPWR sky130_fd_sc_hd__decap_6
XFILLER_34_64 VGND VGND VPWR VPWR sky130_fd_sc_hd__fill_2
XFILLER_7_225 VGND VGND VPWR VPWR sky130_fd_sc_hd__fill_1
X_877_ clockp_buffer_in\[0\] _102_ _028_ VGND VGND VPWR VPWR dll_control.count5\[2\]
+ sky130_fd_sc_hd__dfrtp_1
XPHY_EDGE_ROW_28_Left_64 VGND VGND VPWR VPWR sky130_fd_sc_hd__decap_3
XPHY_EDGE_ROW_12_Left_48 VGND VGND VPWR VPWR sky130_fd_sc_hd__decap_3
X_731_ net111 _375_ _368_ VGND VGND VPWR VPWR _381_ sky130_fd_sc_hd__o21a_1
XFILLER_29_53 VGND VGND VPWR VPWR sky130_fd_sc_hd__decap_3
X_662_ net111 net113 VGND VGND VPWR VPWR _333_ sky130_fd_sc_hd__nor2_2
X_800_ net131 _405_ VGND VGND VPWR VPWR _030_ sky130_fd_sc_hd__nor2_1
Xringosc.dstage\[9\].id.delayenb1 ringosc.dstage\[9\].id.ts itrim\[22\] VGND VGND
+ VPWR VPWR ringosc.dstage\[9\].id.d1 sky130_fd_sc_hd__einvn_1
Xringosc.dstage\[10\].id.delayenb1 ringosc.dstage\[10\].id.ts itrim\[23\] VGND VGND
+ VPWR VPWR ringosc.dstage\[10\].id.d1 sky130_fd_sc_hd__einvn_1
X_593_ dll_control.count6\[2\] dll_control.count5\[2\] _271_ VGND VGND VPWR VPWR _273_
+ sky130_fd_sc_hd__mux2_1
XANTENNA_6 ext_trim[6] VGND VGND VPWR VPWR sky130_fd_sc_hd__diode_2
XFILLER_34_121 VGND VGND VPWR VPWR sky130_fd_sc_hd__fill_2
XFILLER_19_173 VGND VGND VPWR VPWR sky130_fd_sc_hd__fill_2
XFILLER_34_154 VGND VGND VPWR VPWR sky130_fd_sc_hd__fill_2
XPHY_EDGE_ROW_6_Right_6 VGND VGND VPWR VPWR sky130_fd_sc_hd__decap_3
XFILLER_15_55 VGND VGND VPWR VPWR sky130_fd_sc_hd__fill_1
XFILLER_0_253 VPWR VGND VPWR VGND sky130_ef_sc_hd__decap_12
X_714_ net118 ext_trim[4] _372_ VGND VGND VPWR VPWR itrim\[4\] sky130_fd_sc_hd__a21o_1
XFILLER_16_121 VGND VGND VPWR VPWR sky130_fd_sc_hd__fill_2
X_645_ dll_control.tval\[2\] _307_ VGND VGND VPWR VPWR _316_ sky130_fd_sc_hd__nand2_1
XFILLER_31_113 VGND VGND VPWR VPWR sky130_fd_sc_hd__fill_1
X_576_ dll_control.count0\[4\] dll_control.count1\[4\] _252_ VGND VGND VPWR VPWR _264_
+ sky130_fd_sc_hd__mux2_1
XTAP_TAPCELL_ROW_26_193 VGND VPWR sky130_fd_sc_hd__tapvpwrvgnd_1
XTAP_TAPCELL_ROW_9_117 VGND VPWR sky130_fd_sc_hd__tapvpwrvgnd_1
XPHY_EDGE_ROW_15_Left_51 VGND VGND VPWR VPWR sky130_fd_sc_hd__decap_3
X_430_ dll_control.count0\[0\] dll_control.count8\[0\] VGND VGND VPWR VPWR _164_ sky130_fd_sc_hd__and2b_1
XFILLER_13_102 VGND VGND VPWR VPWR sky130_fd_sc_hd__fill_2
XFILLER_13_113 VGND VGND VPWR VPWR sky130_fd_sc_hd__decap_3
XFILLER_13_124 VGND VGND VPWR VPWR sky130_fd_sc_hd__fill_2
XFILLER_13_135 VGND VGND VPWR VPWR sky130_fd_sc_hd__decap_4
XFILLER_21_190 VPWR VGND VPWR VGND sky130_ef_sc_hd__decap_12
XFILLER_3_36 VGND VGND VPWR VPWR sky130_fd_sc_hd__fill_2
X_628_ dll_control.accum\[2\] div[2] VGND VGND VPWR VPWR _299_ sky130_fd_sc_hd__xnor2_1
X_559_ dll_control.count0\[1\] dll_control.count0\[0\] VGND VGND VPWR VPWR _256_ sky130_fd_sc_hd__xor2_1
XTAP_TAPCELL_ROW_14_141 VGND VPWR sky130_fd_sc_hd__tapvpwrvgnd_1
XTAP_TAPCELL_ROW_3_90 VGND VPWR sky130_fd_sc_hd__tapvpwrvgnd_1
Xfanout129 net139 VGND VGND VPWR VPWR net129 sky130_fd_sc_hd__clkbuf_1
Xfanout107 dll_control.tint\[4\] VGND VGND VPWR VPWR net107 sky130_fd_sc_hd__clkbuf_1
Xfanout118 net124 VGND VGND VPWR VPWR net118 sky130_fd_sc_hd__clkbuf_2
XFILLER_27_249 VPWR VGND VPWR VGND sky130_ef_sc_hd__decap_12
XFILLER_27_216 VGND VGND VPWR VPWR sky130_fd_sc_hd__decap_8
XFILLER_10_127 VGND VGND VPWR VPWR sky130_fd_sc_hd__fill_2
XFILLER_12_89 VGND VGND VPWR VPWR sky130_fd_sc_hd__fill_1
XTAP_TAPCELL_ROW_20_166 VGND VPWR sky130_fd_sc_hd__tapvpwrvgnd_1
XPHY_EDGE_ROW_0_Left_36 VGND VGND VPWR VPWR sky130_fd_sc_hd__decap_3
X_413_ dll_control.accum\[5\] dll_control.count8\[5\] VGND VGND VPWR VPWR _147_ sky130_fd_sc_hd__xnor2_1
XFILLER_18_205 VGND VGND VPWR VPWR sky130_fd_sc_hd__fill_1
XFILLER_18_227 VGND VGND VPWR VPWR sky130_fd_sc_hd__fill_2
XFILLER_18_238 VPWR VGND VPWR VGND sky130_ef_sc_hd__decap_12
XFILLER_3_3 VPWR VGND VPWR VGND sky130_ef_sc_hd__decap_12
XFILLER_2_134 VGND VGND VPWR VPWR sky130_fd_sc_hd__fill_2
Xringosc.dstage\[4\].id.delayen0 ringosc.dstage\[4\].id.d2 itrim\[4\] VGND VGND VPWR
+ VPWR ringosc.dstage\[4\].id.out sky130_fd_sc_hd__einvp_2
XFILLER_2_189 VGND VGND VPWR VPWR sky130_fd_sc_hd__decap_3
X_893_ clockp_buffer_in\[0\] _118_ _044_ VGND VGND VPWR VPWR dll_control.count3\[0\]
+ sky130_fd_sc_hd__dfrtp_1
XFILLER_0_37 VGND VGND VPWR VPWR sky130_fd_sc_hd__fill_1
XTAP_TAPCELL_ROW_31_217 VGND VPWR sky130_fd_sc_hd__tapvpwrvgnd_1
XFILLER_9_57 VGND VGND VPWR VPWR sky130_fd_sc_hd__fill_1
XTAP_TAPCELL_ROW_0_80 VGND VPWR sky130_fd_sc_hd__tapvpwrvgnd_1
XFILLER_18_11 VGND VGND VPWR VPWR sky130_fd_sc_hd__fill_1
XFILLER_34_98 VGND VGND VPWR VPWR sky130_fd_sc_hd__fill_2
XFILLER_7_259 VGND VGND VPWR VPWR sky130_fd_sc_hd__decap_6
XFILLER_11_211 VGND VGND VPWR VPWR sky130_fd_sc_hd__fill_2
XFILLER_11_222 VGND VGND VPWR VPWR sky130_fd_sc_hd__fill_2
X_876_ clockp_buffer_in\[0\] _101_ _027_ VGND VGND VPWR VPWR dll_control.count5\[1\]
+ sky130_fd_sc_hd__dfrtp_1
X_730_ net120 ext_trim[12] _380_ _362_ VGND VGND VPWR VPWR itrim\[12\] sky130_fd_sc_hd__a22o_1
XFILLER_28_141 VGND VGND VPWR VPWR sky130_fd_sc_hd__decap_3
X_661_ net104 _331_ VGND VGND VPWR VPWR _332_ sky130_fd_sc_hd__nor2b_1
X_592_ _272_ VGND VGND VPWR VPWR _091_ sky130_fd_sc_hd__clkbuf_1
XANTENNA_7 ext_trim[25] VGND VGND VPWR VPWR sky130_fd_sc_hd__diode_2
XFILLER_6_69 VGND VGND VPWR VPWR sky130_fd_sc_hd__fill_2
X_859_ clockp_buffer_in\[0\] _084_ _010_ VGND VGND VPWR VPWR dll_control.count2\[2\]
+ sky130_fd_sc_hd__dfrtp_1
XFILLER_15_89 VGND VGND VPWR VPWR sky130_fd_sc_hd__decap_8
XFILLER_25_100 VGND VGND VPWR VPWR sky130_fd_sc_hd__decap_8
XFILLER_25_111 VGND VGND VPWR VPWR sky130_fd_sc_hd__fill_1
XFILLER_31_88 VGND VGND VPWR VPWR sky130_fd_sc_hd__fill_2
XFILLER_31_33 VGND VGND VPWR VPWR sky130_fd_sc_hd__fill_2
XFILLER_0_221 VGND VGND VPWR VPWR sky130_fd_sc_hd__decap_3
XFILLER_0_265 VGND VGND VPWR VPWR sky130_fd_sc_hd__fill_1
X_575_ _263_ VGND VGND VPWR VPWR _099_ sky130_fd_sc_hd__clkbuf_1
XFILLER_16_166 VGND VGND VPWR VPWR sky130_fd_sc_hd__decap_6
X_644_ dll_control.tval\[2\] _307_ VGND VGND VPWR VPWR _315_ sky130_fd_sc_hd__xnor2_1
X_713_ net107 net111 _370_ _371_ VGND VGND VPWR VPWR _372_ sky130_fd_sc_hd__o31a_1
XFILLER_31_169 VGND VGND VPWR VPWR sky130_fd_sc_hd__fill_1
XTAP_TAPCELL_ROW_26_194 VGND VPWR sky130_fd_sc_hd__tapvpwrvgnd_1
Xringosc.dstage\[9\].id.delaybuf0 ringosc.dstage\[8\].id.out VGND VGND VPWR VPWR ringosc.dstage\[9\].id.ts
+ sky130_fd_sc_hd__clkbuf_1
Xringosc.dstage\[10\].id.delaybuf0 ringosc.dstage\[10\].id.in VGND VGND VPWR VPWR
+ ringosc.dstage\[10\].id.ts sky130_fd_sc_hd__clkbuf_1
Xringosc.dstage\[5\].id.delayenb0 ringosc.dstage\[5\].id.ts itrim\[5\] VGND VGND VPWR
+ VPWR ringosc.dstage\[5\].id.out sky130_fd_sc_hd__einvn_2
XFILLER_30_191 VGND VGND VPWR VPWR sky130_fd_sc_hd__decap_4
XTAP_TAPCELL_ROW_9_118 VGND VPWR sky130_fd_sc_hd__tapvpwrvgnd_1
XFILLER_13_169 VGND VGND VPWR VPWR sky130_fd_sc_hd__fill_2
XFILLER_3_15 VGND VGND VPWR VPWR sky130_fd_sc_hd__decap_8
X_627_ div[3] dll_control.accum\[3\] VGND VGND VPWR VPWR _298_ sky130_fd_sc_hd__nand2b_1
X_558_ _218_ _255_ _253_ VGND VGND VPWR VPWR _108_ sky130_fd_sc_hd__a21o_1
X_489_ _215_ VGND VGND VPWR VPWR _137_ sky130_fd_sc_hd__clkbuf_1
XTAP_TAPCELL_ROW_14_142 VGND VPWR sky130_fd_sc_hd__tapvpwrvgnd_1
XTAP_TAPCELL_ROW_3_91 VGND VPWR sky130_fd_sc_hd__tapvpwrvgnd_1
Xfanout108 net109 VGND VGND VPWR VPWR net108 sky130_fd_sc_hd__clkbuf_2
Xfanout119 net124 VGND VGND VPWR VPWR net119 sky130_fd_sc_hd__clkbuf_1
XFILLER_10_139 VGND VGND VPWR VPWR sky130_fd_sc_hd__fill_1
XFILLER_12_46 VGND VGND VPWR VPWR sky130_fd_sc_hd__fill_2
XFILLER_12_79 VGND VGND VPWR VPWR sky130_fd_sc_hd__decap_4
XTAP_TAPCELL_ROW_20_167 VGND VPWR sky130_fd_sc_hd__tapvpwrvgnd_1
X_412_ dll_control.count8\[5\] dll_control.accum\[5\] VGND VGND VPWR VPWR _146_ sky130_fd_sc_hd__nand2b_1
XFILLER_5_110 VGND VGND VPWR VPWR sky130_fd_sc_hd__fill_2
XFILLER_24_209 VPWR VGND VPWR VGND sky130_ef_sc_hd__decap_12
XFILLER_32_253 VPWR VGND VPWR VGND sky130_ef_sc_hd__decap_12
Xringosc.dstage\[4\].id.delayen1 ringosc.dstage\[4\].id.d0 itrim\[17\] VGND VGND VPWR
+ VPWR ringosc.dstage\[4\].id.d1 sky130_fd_sc_hd__einvp_1
X_892_ clockp_buffer_in\[0\] _117_ _043_ VGND VGND VPWR VPWR dll_control.count7\[5\]
+ sky130_fd_sc_hd__dfrtp_1
XTAP_TAPCELL_ROW_31_218 VGND VPWR sky130_fd_sc_hd__tapvpwrvgnd_1
XFILLER_9_14 VGND VGND VPWR VPWR sky130_fd_sc_hd__decap_4
XFILLER_14_253 VGND VGND VPWR VPWR sky130_fd_sc_hd__fill_1
XFILLER_29_3 VPWR VGND VPWR VGND sky130_ef_sc_hd__decap_12
XFILLER_1_190 VGND VGND VPWR VPWR sky130_fd_sc_hd__fill_2
XFILLER_34_33 VGND VGND VPWR VPWR sky130_fd_sc_hd__fill_1
XFILLER_11_256 VGND VGND VPWR VPWR sky130_fd_sc_hd__decap_8
X_875_ clockp_buffer_in\[0\] _100_ _026_ VGND VGND VPWR VPWR dll_control.count5\[0\]
+ sky130_fd_sc_hd__dfrtp_1
XFILLER_15_9 VGND VGND VPWR VPWR sky130_fd_sc_hd__fill_1
XFILLER_29_44 VGND VGND VPWR VPWR sky130_fd_sc_hd__fill_2
XFILLER_29_77 VGND VGND VPWR VPWR sky130_fd_sc_hd__fill_2
XFILLER_28_197 VPWR VGND VPWR VGND sky130_ef_sc_hd__decap_12
XFILLER_28_175 VGND VGND VPWR VPWR sky130_fd_sc_hd__fill_2
X_591_ dll_control.count6\[3\] dll_control.count5\[3\] _271_ VGND VGND VPWR VPWR _272_
+ sky130_fd_sc_hd__mux2_1
X_660_ net109 dll_control.tint\[2\] VGND VGND VPWR VPWR _331_ sky130_fd_sc_hd__nor2_1
XFILLER_3_241 VPWR VGND VPWR VGND sky130_ef_sc_hd__decap_12
X_858_ clockp_buffer_in\[0\] _083_ _009_ VGND VGND VPWR VPWR dll_control.count2\[1\]
+ sky130_fd_sc_hd__dfrtp_1
XFILLER_34_178 VPWR VGND VPWR VGND sky130_ef_sc_hd__decap_12
XFILLER_34_145 VGND VGND VPWR VPWR sky130_fd_sc_hd__fill_2
X_789_ net116 _404_ VGND VGND VPWR VPWR _020_ sky130_fd_sc_hd__nor2_1
XFILLER_19_153 VGND VGND VPWR VPWR sky130_fd_sc_hd__decap_4
XFILLER_15_13 VGND VGND VPWR VPWR sky130_fd_sc_hd__decap_3
XFILLER_15_57 VGND VGND VPWR VPWR sky130_fd_sc_hd__fill_1
XFILLER_15_68 VGND VGND VPWR VPWR sky130_fd_sc_hd__fill_1
XFILLER_25_167 VGND VGND VPWR VPWR sky130_fd_sc_hd__fill_1
XFILLER_31_67 VGND VGND VPWR VPWR sky130_fd_sc_hd__fill_2
X_712_ _363_ _366_ VGND VGND VPWR VPWR _371_ sky130_fd_sc_hd__and2_1
XFILLER_31_104 VGND VGND VPWR VPWR sky130_fd_sc_hd__fill_2
X_574_ dll_control.count0\[5\] dll_control.count1\[5\] _252_ VGND VGND VPWR VPWR _263_
+ sky130_fd_sc_hd__mux2_1
XFILLER_16_134 VGND VGND VPWR VPWR sky130_fd_sc_hd__decap_6
X_643_ dll_control.tval\[0\] _312_ _313_ VGND VGND VPWR VPWR _314_ sky130_fd_sc_hd__a21oi_1
XFILLER_31_159 VGND VGND VPWR VPWR sky130_fd_sc_hd__decap_3
XTAP_TAPCELL_ROW_26_195 VGND VPWR sky130_fd_sc_hd__tapvpwrvgnd_1
Xringosc.dstage\[9\].id.delaybuf1 ringosc.dstage\[9\].id.ts VGND VGND VPWR VPWR ringosc.dstage\[9\].id.d0
+ sky130_fd_sc_hd__clkbuf_1
Xringosc.dstage\[10\].id.delaybuf1 ringosc.dstage\[10\].id.ts VGND VGND VPWR VPWR
+ ringosc.dstage\[10\].id.d0 sky130_fd_sc_hd__clkbuf_1
Xringosc.dstage\[5\].id.delayenb1 ringosc.dstage\[5\].id.ts itrim\[18\] VGND VGND
+ VPWR VPWR ringosc.dstage\[5\].id.d1 sky130_fd_sc_hd__einvn_1
XFILLER_11_3 VPWR VGND VPWR VGND sky130_ef_sc_hd__decap_12
XFILLER_22_126 VGND VGND VPWR VPWR sky130_fd_sc_hd__decap_3
XTAP_TAPCELL_ROW_9_119 VGND VPWR sky130_fd_sc_hd__tapvpwrvgnd_1
XFILLER_26_56 VGND VGND VPWR VPWR sky130_fd_sc_hd__fill_1
XFILLER_26_78 VGND VGND VPWR VPWR sky130_fd_sc_hd__fill_2
X_557_ _247_ _254_ VGND VGND VPWR VPWR _255_ sky130_fd_sc_hd__nor2_1
X_488_ dll_control.accum\[1\] _214_ _211_ VGND VGND VPWR VPWR _215_ sky130_fd_sc_hd__mux2_1
X_626_ dll_control.accum\[3\] div[3] VGND VGND VPWR VPWR _297_ sky130_fd_sc_hd__nand2b_1
XTAP_TAPCELL_ROW_14_143 VGND VPWR sky130_fd_sc_hd__tapvpwrvgnd_1
XTAP_TAPCELL_ROW_3_92 VGND VPWR sky130_fd_sc_hd__tapvpwrvgnd_1
XFILLER_8_130 VGND VGND VPWR VPWR sky130_fd_sc_hd__fill_2
XFILLER_8_141 VGND VGND VPWR VPWR sky130_fd_sc_hd__decap_8
Xfanout109 dll_control.tint\[3\] VGND VGND VPWR VPWR net109 sky130_fd_sc_hd__clkbuf_1
XFILLER_12_14 VGND VGND VPWR VPWR sky130_fd_sc_hd__fill_2
XFILLER_12_25 VGND VGND VPWR VPWR sky130_fd_sc_hd__decap_3
XFILLER_12_58 VGND VGND VPWR VPWR sky130_fd_sc_hd__decap_8
XTAP_TAPCELL_ROW_20_168 VGND VPWR sky130_fd_sc_hd__tapvpwrvgnd_1
XTAP_TAPCELL_ROW_28_202 VGND VPWR sky130_fd_sc_hd__tapvpwrvgnd_1
XTAP_TAPCELL_ROW_5_100 VGND VPWR sky130_fd_sc_hd__tapvpwrvgnd_1
XFILLER_26_251 VGND VGND VPWR VPWR sky130_fd_sc_hd__fill_1
X_411_ dll_control.accum\[6\] dll_control.accum\[7\] VGND VGND VPWR VPWR _145_ sky130_fd_sc_hd__nand2b_1
XFILLER_5_100 VGND VGND VPWR VPWR sky130_fd_sc_hd__fill_2
X_609_ dll_control.count2\[0\] dll_control.count1\[0\] _193_ VGND VGND VPWR VPWR _281_
+ sky130_fd_sc_hd__mux2_1
XFILLER_32_265 VGND VGND VPWR VPWR sky130_fd_sc_hd__fill_1
XFILLER_32_221 VPWR VGND VPWR VGND sky130_ef_sc_hd__decap_12
XFILLER_23_265 VGND VGND VPWR VPWR sky130_fd_sc_hd__fill_1
XFILLER_23_46 VGND VGND VPWR VPWR sky130_fd_sc_hd__fill_2
XFILLER_23_57 VGND VGND VPWR VPWR sky130_fd_sc_hd__fill_1
X_891_ clockp_buffer_in\[0\] _116_ _042_ VGND VGND VPWR VPWR dll_control.count7\[4\]
+ sky130_fd_sc_hd__dfrtp_1
XTAP_TAPCELL_ROW_31_219 VGND VPWR sky130_fd_sc_hd__tapvpwrvgnd_1
XFILLER_14_265 VGND VGND VPWR VPWR sky130_fd_sc_hd__fill_1
XFILLER_18_79 VGND VGND VPWR VPWR sky130_fd_sc_hd__decap_4
XFILLER_34_56 VGND VGND VPWR VPWR sky130_fd_sc_hd__decap_4
XFILLER_7_206 VGND VGND VPWR VPWR sky130_fd_sc_hd__decap_3
X_874_ clockp_buffer_in\[0\] _099_ _025_ VGND VGND VPWR VPWR dll_control.count1\[5\]
+ sky130_fd_sc_hd__dfrtp_1
XFILLER_4_209 VGND VGND VPWR VPWR sky130_fd_sc_hd__fill_2
XFILLER_20_36 VGND VGND VPWR VPWR sky130_fd_sc_hd__decap_4
XFILLER_20_47 VGND VGND VPWR VPWR sky130_fd_sc_hd__fill_2
XFILLER_28_121 VGND VGND VPWR VPWR sky130_fd_sc_hd__fill_2